powerflow/Codes/PF_Formulation/resultados_csv/17/300bus/ramos.csv
caso,script,branch_id,f_bus,t_bus,pf_pu,qf_pu,pt_pu,qt_pu,loss_p_pu,loss_q_pu
300bus.pwf,17,1,206,207,-0.09064487505969514,-0.10123444356218607,0.09178940978779253,0.1026925494486665,0.0011445347280973905,0.001458105886480432
300bus.pwf,17,2,9021,9023,0.009347911004366145,-0.01629775370296572,-0.009022057846886795,0.01657826180866074,0.00032585315747934995,0.00028050810569502094
300bus.pwf,17,3,1,5,4.06711215433969,1.0530949060587762,-4.051776214114505,-0.9610792647076937,0.01533594022518514,0.09201564135108253
300bus.pwf,17,4,37,38,-0.3055018319588892,-0.20734008474375606,0.3065639635181075,0.20536909163154313,0.0010621315592183045,-0.0019709931122129376
300bus.pwf,17,5,70,528,0.2834513939186946,-0.23847363684700867,-0.28099999999999964,0.2231840486525119,0.0024513939186949774,-0.015289588194496773
300bus.pwf,17,6,25,26,0.7866023076554892,-0.03351942210293307,-0.7672937663081315,0.03323622536407539,0.01930854134735771,-0.0002831967388576828
300bus.pwf,17,7,41,42,-5.511581581996007,-0.41691624518319514,5.511581581996007,1.2653311274364185,0.0,0.8484148822532234
300bus.pwf,17,8,231,232,5.526712518388131,-0.19173901268044877,-5.521578948088152,-1.2688139031569055,0.005133570299979517,-1.4605529158373542
300bus.pwf,17,9,201,204,-0.15245843323227093,0.05716049570419145,0.15542685819202728,-0.052779674997454826,0.002968424959756355,0.004380820706736621
300bus.pwf,17,10,119,1190,1.0039363801611447,0.31330904331702086,-1.0030000000000059,-0.2917722996108209,0.0009363801611388389,0.021536743706199957
300bus.pwf,17,11,115,122,1.9107930543097809,0.9453803340104596,-1.893443546595438,-0.8531523215033385,0.01734950771434285,0.0922280125071211
300bus.pwf,17,12,9006,9007,0.09116459283171305,-0.059354300555837305,-0.09060699937494873,0.06182885978659532,0.0005575934567643159,0.002474559230758011
300bus.pwf,17,13,145,146,-2.06468104796119,-0.3369650647558615,2.1007407491479686,0.49356412005179995,0.0360597011867787,0.15659905529593843
300bus.pwf,17,14,228,231,0.033803365303520905,-0.848045919115496,-0.03200999335492499,0.9112967682255885,0.001793371948595912,0.06325084911009249
300bus.pwf,17,15,129,133,1.0277189610479893,-0.11811395188909206,-1.0256437538310084,0.10411691308969655,0.0020752072169809566,-0.013997038799395511
300bus.pwf,17,16,189,208,0.06228162471433914,0.04349019206379147,-0.06211977322600344,-0.04302425596100669,0.00016185148833569585,0.0004659361027847808
300bus.pwf,17,17,57,58,-0.6383729638024963,0.624738382817555,0.6705285550329151,-0.6105966932302429,0.03215559123041878,0.0141416895873121
300bus.pwf,17,18,200,210,-0.23504929186462786,-0.03515976323426945,0.23922604388300717,0.02622964773065889,0.004176752018379304,-0.008930115503610558
300bus.pwf,17,19,15,89,0.4381367758633031,-0.2267114097621206,-0.4164486287579772,0.24290530472418317,0.02168814710532585,0.016193894962062583
300bus.pwf,17,20,197,198,-0.9616908519675522,-0.33722246680574675,0.9707107930048158,0.3807329946983399,0.009019941037263557,0.04351052789259313
300bus.pwf,17,21,14,15,2.4149418666251075,-1.2592861484082698,-2.315369534507891,1.4561881881034695,0.09957233211721661,0.1969020396951997
300bus.pwf,17,22,9004,9044,-0.04293062893366596,0.027954218044046505,0.0430142012678283,-0.027891102612141658,8.357233416234067e-5,6.31154319048477e-5
300bus.pwf,17,23,173,176,-0.4688698185950244,0.3224173636564831,0.5362553452163233,-0.19533341369855448,0.06738552662129893,0.12708394995792863
300bus.pwf,17,24,224,226,-0.43084613295853846,-2.9496683773768053,0.4421269139082,2.056077966783316,0.011280780949661562,-0.8935904105934895
300bus.pwf,17,25,135,136,-2.1465740461484644,-0.2215922562325357,2.1841077405383107,0.03762184709525479,0.03753369438984633,-0.1839704091372809
300bus.pwf,17,26,13,20,0.8973034000797998,-0.2017347194233969,-0.8926915601120345,0.21030714347198073,0.004611839967765263,0.008572424048583827
300bus.pwf,17,27,116,120,-2.80493700728062,-0.3436082156967589,2.8222103236243195,1.2485799197016538,0.017273316343699552,0.9049717040048949
300bus.pwf,17,28,104,322,0.024138970054056408,-0.06482177136638603,-0.024000000000000465,0.047467540096293975,0.00013897005405594243,-0.017354231270092058
300bus.pwf,17,29,37,90,-0.5907726498276904,-0.03519089742391307,0.6069800918605359,0.062207959254506895,0.01620744203284552,0.027017061830593825
300bus.pwf,17,30,127,128,-0.5301584248815092,-0.2581834996172994,0.5319780525975226,0.17455918254180253,0.0018196277160134056,-0.08362431707549689
300bus.pwf,17,31,26,320,0.024661344575461173,-0.13559305378973494,-0.023999999999999654,0.1219344890913736,0.0006613445754615199,-0.013658564698361339
300bus.pwf,17,32,167,169,-1.4997445324711118,-0.4916744103605337,1.5041043583133153,0.5048001315190502,0.004359825842203513,0.013125721158516512
300bus.pwf,17,33,203,211,0.2736738942802681,0.10065390013967626,-0.2729425353146757,-0.10567518662389855,0.0007313589655923991,-0.005021286484222287
300bus.pwf,17,34,123,124,-1.3727439896773397,0.5751572516758543,1.4668745708562707,-0.3955417854683692,0.09413058117893103,0.17961546620748509
300bus.pwf,17,35,24,319,1.1668626326146074,-0.30544514834304703,-1.1580000000000008,0.24040416811384457,0.008862632614606625,-0.06504098022920246
300bus.pwf,17,36,99,109,0.3282301960954854,0.02388782653144078,-0.32403172529552576,-0.04167559110770286,0.004198470799959664,-0.017787764576262077
300bus.pwf,17,37,77,78,-2.626996837951843,-0.6902509766789642,2.6336153947665935,0.72211717564387,0.00661855681475032,0.031866198964905834
300bus.pwf,17,38,20,27,0.23987806404174233,-0.01586861441531201,-0.23617546829409125,-0.07966279450506492,0.003702595747651083,-0.09553140892037693
300bus.pwf,17,39,198,210,0.9451685058153395,0.2991836916016333,-0.9288747225130146,-0.2490812753617029,0.016293783302324893,0.050102416239930364
300bus.pwf,17,40,97,102,0.2906991839336084,-0.08859301766908241,-0.2877689549711291,0.08154081018165978,0.0029302289624792976,-0.007052207487422635
300bus.pwf,17,41,37,40,-0.2118702778691784,-0.22373280663247366,0.21389559270480324,0.22239229135017427,0.0020253148356248474,-0.0013405152822993927
300bus.pwf,17,42,220,238,-2.75599051905211,2.3442094293979974,2.777141436287072,-2.710667291408944,0.021150917234962208,-0.36645786201094666
300bus.pwf,17,43,8,14,4.225858178497491,-0.0850794856187902,-4.01494186662511,0.6803796586467981,0.21091631187238136,0.5953001730280079
300bus.pwf,17,44,158,159,-2.378737360466023,0.4275981136337127,2.397556876634001,-0.41509071848998047,0.01881951616797828,0.012507395143732225
300bus.pwf,17,45,217,220,-0.13968693386175182,0.3588971557928141,0.14137615629311098,-1.2510491704095232,0.0016892224313591608,-0.8921520146167091
300bus.pwf,17,46,122,123,0.30366577881688783,-0.053328563330089396,-0.2951872437562303,0.05233341867820063,0.008478535060657544,-0.0009951446518887685
300bus.pwf,17,47,228,234,-0.09495665237967113,-1.532451767014931,0.09650027028350286,0.6943721252563908,0.0015436179038317288,-0.8380796417585401
300bus.pwf,17,48,7,12,2.599405272056393,-1.316738732194591,-2.5914322974174078,1.3141428719234767,0.007972974638985164,-0.0025958602711142476
300bus.pwf,17,49,130,151,1.4040904680721706,0.697368246924021,-1.4003434034066908,-0.6898749430794233,0.0037470646654798045,0.007493303844597676
300bus.pwf,17,50,11,13,1.4933325195854747,-0.057922797311033836,-1.4773034000798013,0.10615575770919,0.016029119505673428,0.048232960398156166
300bus.pwf,17,51,198,203,0.6977428717034281,0.23024473099649956,-0.6936738942802677,-0.239270984578276,0.004068977423160369,-0.009026253581776444
300bus.pwf,17,52,245,246,0.19722263319914796,0.06118834993300649,-0.1966072853437308,-0.05831933954978819,0.0006153478554171699,0.0028690103832182956
300bus.pwf,17,53,165,166,-5.522425421874143,0.7759022388988995,5.529999999999999,-0.31006568415873514,0.00757457812585649,0.4658365547401644
300bus.pwf,17,54,235,238,-2.6546759569756184,-0.447596942506471,2.6560126340022614,-0.39247182469161945,0.001336677026642974,-0.8400687671980904
300bus.pwf,17,55,119,121,6.743110518305249,4.9009070583331145,-6.743110518305249,-1.4770738050073966,0.0,3.423833253325718
300bus.pwf,17,56,63,526,1.5081999217527549,-0.055935710426386454,-1.4530000000000003,0.38583295428846087,0.055199921752754566,0.3298972438620744
300bus.pwf,17,57,85,86,-1.299989476776577,0.2817344924855494,1.3126043525610576,-0.3270925783673544,0.012614875784480617,-0.04535808588180501
300bus.pwf,17,58,125,126,-3.7774339548007503,0.17548851808901983,3.7862061388258583,0.11253152406869876,0.008772184025108043,0.2880200421577186
300bus.pwf,17,59,172,173,0.32668741124042094,0.11723335052073497,-0.318683926957084,-0.12246807078118088,0.00800348428333697,-0.005234720260445913
300bus.pwf,17,60,173,175,-0.19081405279563154,-0.0021765839096987705,0.1937577009338803,-0.0256905998421586,0.0029436481382487667,-0.02786718375185737
300bus.pwf,17,61,126,129,0.2789877682747107,-0.5463921142225998,-0.2756431598241428,0.3879425105716048,0.003344608450567943,-0.15844960365099503
300bus.pwf,17,62,157,159,-6.293322683130257,1.8887277481413234,6.330744558106286,-1.4933775014132946,0.03742187497602867,0.39535024672802876
300bus.pwf,17,63,175,179,0.1651691867113534,-0.04062741168384547,-0.16292335497047616,-0.0009347003838992701,0.0022458317408772244,-0.04156211206774474
300bus.pwf,17,64,154,183,-0.4559825388556119,0.06582631435485457,0.4768110447222992,-0.02513584168554099,0.020828505866687275,0.04069047266931358
300bus.pwf,17,65,21,24,-2.275646737619829,-0.9857581166133244,2.2983847715655354,0.8776440659876122,0.022738033945706615,-0.10811405062571211
300bus.pwf,17,66,217,219,-1.1969222627460332,-2.081379150483256,1.199443416241413,2.147188556669958,0.0025211534953797354,0.06580940618670184
300bus.pwf,17,67,91,94,-0.16462138877909566,0.29190118813406457,0.1748368818890726,-0.301757027091254,0.010215493109976936,-0.009855838957189444
300bus.pwf,17,68,191,192,8.292061579432819,3.2886226955036353,-8.05079462523138,0.5716485717193914,0.24126695420143918,3.860271267223027
300bus.pwf,17,69,217,218,0.1767393845708703,0.4224901702195787,-0.1767393845708703,-0.41405596580846904,0.0,0.008434204411109647
300bus.pwf,17,70,12,21,4.925598977149996,0.6587605491277724,-4.879337729879601,-0.43610175219806524,0.0462612472703956,0.22265879692970714
300bus.pwf,17,71,178,179,0.1780731050054976,-0.29966484166089097,-0.17126009033646944,0.29943184339521683,0.006813014669028172,-0.00023299826567413362
300bus.pwf,17,72,51,52,-0.32580589765786727,-0.05894991224520098,0.3300507632212468,0.02474426522162311,0.004244865563379552,-0.03420564702357787
300bus.pwf,17,73,158,160,-0.9176957241302536,0.49199408816784196,0.9265511487953048,-0.6790847151420634,0.008855424665051181,-0.1870906269742214
300bus.pwf,17,74,33,38,1.3973896636061842,0.1870696030274301,-1.392650337893326,-0.17789549159457446,0.004739325712858289,0.009174111432855625
300bus.pwf,17,75,199,200,-0.016503691096248087,-0.010388625560785056,0.016524959011624908,0.0006690105544711481,2.1267915376821378e-5,-0.009719615006313909
300bus.pwf,17,76,98,100,-0.04186589727802151,0.19459918633375295,0.042684828574910655,-0.2008038834318019,0.0008189312968891471,-0.006204697098048939
300bus.pwf,17,77,126,157,-3.6927612605387767,1.1615153431122993,3.771161298973527,-0.6921580269259631,0.0784000384347503,0.46935731618633625
300bus.pwf,17,78,53,54,-0.37529266151848256,-0.014434750107592764,0.3786394004263611,-0.012952685087211036,0.0033467389078785104,-0.0273874351948038
300bus.pwf,17,79,72,531,0.14047113917792126,0.015506101648954634,-0.13999999999999996,-0.011954153940409357,0.0004711391779212981,0.0035519477085452777
300bus.pwf,17,80,2,8,4.5158835760388705,0.3217839967608569,-4.409804062967304,0.09451855365180961,0.10607951307156682,0.4163025504126665
300bus.pwf,17,81,48,107,-0.49835395422883855,-0.2553274450748141,0.5055317679446191,0.26532996736144054,0.007177813715780523,0.010002522286626458
300bus.pwf,17,82,199,210,-0.33349630890375126,-0.11189824461906783,0.33804808549326637,0.11796871161928524,0.004551776589515111,0.0060704670002174055
300bus.pwf,17,83,15,90,0.5068158870216337,-0.12447092221212236,-0.4829764075696971,0.16285646645011426,0.023839479451936596,0.0383855442379919
300bus.pwf,17,84,45,74,2.482484791890394,-0.45285502215824674,-2.4320308473512644,0.30078181378698016,0.05045394453912966,-0.1520732083712666
300bus.pwf,17,85,35,76,1.1272172393077737,0.3815726538839851,-1.119422949897347,-0.36554371305289346,0.0077942894104268134,0.01602894083109163
300bus.pwf,17,86,117,118,-9.058301434740303,3.3564406371129882,9.068355506719351,-3.1911703688461364,0.010054071979048729,0.16527026826685187
300bus.pwf,17,87,39,42,5.000000000000008,1.298444481243752,-4.985330791610028,-1.5885232313089719,0.014669208389980426,-0.29007875006522
300bus.pwf,17,88,204,205,0.024658453686621423,-0.16831851047241206,-0.02347568740780767,0.17006694758022609,0.0011827662788137516,0.001748437107814027
300bus.pwf,17,89,60,62,-3.412932707092773,0.3966828857976826,3.509880378548904,-0.24615907550410487,0.09694767145613126,0.15052381029357775
300bus.pwf,17,90,137,181,-1.8668899206146936,-1.7707956309019868,1.869700675569104,1.7651911594680745,0.0028107549544102994,-0.005604471433912295
300bus.pwf,17,91,140,141,-0.5104263453834799,0.03961040032740214,0.513251038694567,-0.16221233772009847,0.0028246933110871453,-0.12260193739269633
300bus.pwf,17,92,81,194,0.1642791331499312,-0.8354164843744656,-0.16336717281279706,0.21676492088387117,0.0009119603371341434,-0.6186515634905945
300bus.pwf,17,93,143,145,0.4251287978721418,0.927345220519892,-0.4176528636904437,-0.9814664131123374,0.007475934181698118,-0.05412119259244541
300bus.pwf,17,94,55,57,-1.0602313414540236,0.11112972478123073,1.130707136140468,-0.019679372723086286,0.07047579468644427,0.09145035205814445
300bus.pwf,17,95,78,84,-3.3799999999999994,-0.9477095266584357,3.3799999999999994,1.341121275773105,0.0,0.39341174911466936
300bus.pwf,17,96,172,174,-0.30104316124629865,-0.111946388357437,0.3061761432864957,0.09743717933492183,0.005132982040197076,-0.01450920902251518
300bus.pwf,17,97,126,127,1.7086718153140446,-1.1583111345748756,-1.6846713993690208,1.0688984203750196,0.02400041594502378,-0.08941271419985597
300bus.pwf,17,98,57,63,0.1776658276620292,-0.005268073536800061,-0.17323157581519966,-0.06043900785104547,0.004434251846829551,-0.06570708138784553
300bus.pwf,17,99,190,240,-0.33094764804722554,1.3323686229430862,0.33094764804722554,-1.2895337944098983,0.0,0.042834828533187874
300bus.pwf,17,100,123,125,0.8879312334335717,-0.6423565720482936,-0.8265906793304344,0.6868469808470659,0.061340554103137324,0.04449040879877231
300bus.pwf,17,101,126,158,-3.199811258246031,1.276383028733162,3.296433084596274,-0.9185413777375164,0.09662182635024275,0.35784165099564547
300bus.pwf,17,102,143,149,-0.5004990789233876,-0.16684517664739812,0.5032779850831937,0.0254380250528647,0.002778906159806027,-0.14140715159453343
300bus.pwf,17,103,196,197,-0.7733146791128749,-0.22086528044344403,0.7814794038170745,0.23968312254136107,0.0081647247041996,0.018817842097917037
300bus.pwf,17,104,163,164,-2.223265207857585,0.605972413099704,2.2698743308808016,-3.553220155997841,0.046609123023216625,-2.9472477428981367
300bus.pwf,17,105,134,135,-0.45374516432943224,-0.0017246117421380602,0.4545740461484681,-0.19387203151797922,0.0008288818190358427,-0.19559664326011728
300bus.pwf,17,106,242,247,0.9926285297464551,0.1977367269515528,-0.9825526772454524,-0.13269350053883205,0.010075852501002736,0.06504322641272076
300bus.pwf,17,107,102,104,0.5197304877828681,-0.36098592916829875,-0.5054950968831757,0.35040995982668444,0.01423539089969239,-0.01057596934161431
300bus.pwf,17,108,99,108,-0.1785669960482886,-0.5802242913034522,0.17918859749248325,0.579099361437969,0.0006216014441946527,-0.0011249298654831819
300bus.pwf,17,109,140,182,1.6567405650500369,-0.837314469096955,-1.6529998608756997,0.7244245588409963,0.0037407041743371394,-0.11288991025595863
300bus.pwf,17,110,173,174,-0.6566322016522605,-0.141815326398974,0.6956200189454028,0.2516374010749344,0.03898781729314227,0.10982207467596036
300bus.pwf,17,111,198,202,0.11502425956504714,-0.0030227223468627246,-0.11139154386072847,0.010550759710029042,0.0036327157043186675,0.007528037363166318
300bus.pwf,17,112,47,113,0.2301222778134697,-0.12801459057187822,-0.2273989216393741,0.12154555613997639,0.0027233561740955814,-0.006469034431901832
300bus.pwf,17,113,134,184,-0.6202704118305884,-0.7502307930927191,0.6228910336244837,0.4804515681678619,0.002620621793895328,-0.26977922492485723
300bus.pwf,17,114,77,80,0.00015403195782578288,-0.10374556913608025,-6.831475114784519e-5,0.061627029701287986,8.57172066779377e-5,-0.04211853943479227
300bus.pwf,17,115,74,562,0.5117827745853297,-0.21866745390615017,-0.5049999999999999,-0.14932283810684654,0.006782774585329832,-0.3679902920129967
300bus.pwf,17,116,220,221,0.4670191307482661,-0.9770769806939436,-0.46634691529040545,0.4482502610698441,0.0006722154578606698,-0.5288267196240994
300bus.pwf,17,117,187,188,4.93210377143208,0.9716147212259214,-4.917403931597449,-0.9288298181597154,0.014699839834630524,0.04278490306620597
300bus.pwf,17,118,112,114,-0.039552557915702904,-0.023389028197015785,0.03958235641105946,0.016725958628718354,2.9798495356558874e-5,-0.006663069568297431
300bus.pwf,17,119,37,49,2.73806032227477,0.9946605484276261,-2.5949950544461444,-0.3568669473988435,0.1430652678286255,0.6377936010287826
300bus.pwf,17,120,118,1201,-0.6895294320936023,-0.07495636762401081,0.6895294320936023,0.39766918166619236,0.0,0.32271281404218155
300bus.pwf,17,121,146,147,-1.6758185306141464,0.16052183500255227,1.6945642907237422,-0.11359908329806304,0.01874576010959572,0.04692275170448923
300bus.pwf,17,122,9003,9007,-0.06987196646449338,0.02775338387042798,0.07013371692475427,-0.026596334255232397,0.00026175046026089,0.0011570496151955822
300bus.pwf,17,123,224,225,-2.3293912838552475,2.360834322807521,2.4437777528856715,-2.0864448029622737,0.11438646903042393,0.27438951984524707
300bus.pwf,17,124,122,125,0.5845569871113409,-0.2095679187197305,-0.5439753658688135,0.3133077407145378,0.0405816212425274,0.10373982199480733
300bus.pwf,17,125,195,219,0.19140915008727988,-0.7569383661373984,-0.19075769876815163,0.16428438260595693,0.0006514513191282489,-0.5926539835314415
300bus.pwf,17,126,133,169,0.9640337096516873,0.7895803017635976,-0.9609617733165177,-0.7942438245792522,0.003071936335169667,-0.0046635228156546304
300bus.pwf,17,127,148,179,0.4327362185375935,0.1660540672795492,-0.4058165546930541,-0.16929814583546654,0.026919663844539365,-0.0032440785559173513
300bus.pwf,17,128,242,245,0.6794229082958191,0.25261724659241325,-0.6756391884864167,-0.2133496178387395,0.003783719809402397,0.03926762875367373
300bus.pwf,17,129,90,92,-0.7840036842908388,-0.18048477904351962,0.8029949951778449,0.2562344918146631,0.01899131088700612,0.07574971277114351
300bus.pwf,17,130,190,229,-0.2863529442986721,1.5343466472393388,0.2863529442986721,-1.4083076213078058,0.0,0.12603902593153293
300bus.pwf,17,131,218,220,-0.2970085977592221,0.05684895642726863,0.29759523201071875,-0.5148340164757653,0.0005866342514966316,-0.4579850600484967
300bus.pwf,17,132,214,215,2.5110764099085348,0.41054391837728066,-2.5014052835610876,-0.32787110304912137,0.009671126347447156,0.08267281532815929
300bus.pwf,17,133,38,41,-0.6930204712289844,0.0706780144293847,0.6967707752347215,-0.07416099689974398,0.0037503040057371706,-0.003482982470359275
300bus.pwf,17,134,41,51,1.244943030044732,0.2298959727695526,-1.1970982861875734,-0.12819019131765302,0.047844743857158534,0.10170578145189957
300bus.pwf,17,135,162,164,4.605554380134536,-0.5579852182646495,-4.543482008147105,1.201460687588538,0.06207237198743076,0.6434754693238885
300bus.pwf,17,136,70,71,-0.8434513939186937,0.05641567629931171,0.8651004846313094,-0.05604101650447707,0.02164909071261567,0.00037465979483464196
300bus.pwf,17,137,9003,9044,0.04328680550123551,-0.05077790509668902,-0.04301420126783015,0.05101260041935143,0.0002726042334053602,0.00023469532266240378
300bus.pwf,17,138,33,40,0.6735128152641532,-0.1820849498997118,-0.6707521540865202,0.1744077763548274,0.0027606611776329615,-0.007677173544884397
300bus.pwf,17,139,120,1201,0.6895294320936028,0.06448811387791364,-0.6895294320936028,-0.22525955052676983,0.0,-0.16077143664885618
300bus.pwf,17,140,105,110,0.4408751236599664,-0.11447158708716501,-0.41369441498047643,0.1297617914781201,0.027180708679489962,0.015290204390955076
300bus.pwf,17,141,162,165,-5.4555543801345365,0.3162049541769797,5.522425421874145,-0.7767135092141807,0.06687104173960812,-0.460508555037201
300bus.pwf,17,142,42,46,5.561318986394626,-1.6390351476546368,-5.502101091405782,1.1655979180562337,0.05921789498884422,-0.47343722959840306
300bus.pwf,17,143,37,41,-1.1007403523186912,-0.09856683577756709,1.112763767943306,0.12126597778686143,0.012023415624614842,0.02269914200929435
300bus.pwf,17,144,103,105,0.4249925043783795,-0.018283437257586896,-0.42208206415480815,0.018393404673602773,0.0029104402235713422,0.000109967416015877
300bus.pwf,17,145,127,168,-0.5275156546779208,-0.25792045938653657,0.5293189906790255,0.17414017923202635,0.0018033360011047161,-0.08378028015451022
300bus.pwf,17,146,126,132,-0.010369616861714628,-0.4795089921173842,0.012463664401916999,0.16433590605764914,0.0020940475402023706,-0.31517308605973504
300bus.pwf,17,147,94,97,0.19729945402421903,-0.2328632055901933,-0.17625603713360175,0.21626570102935488,0.021043416890617284,-0.016597504560838416
300bus.pwf,17,148,177,178,1.5855656101733864,-0.439810130518207,-1.511838339437113,0.679949501178887,0.07372727073627328,0.24013937066067997
300bus.pwf,17,149,34,42,-2.402443870446946,-0.3783407067126919,2.4078939424625694,0.3762600532074319,0.0054500720156234195,-0.0020806535052599884
300bus.pwf,17,150,71,73,-0.5999195879878737,0.3205681651022371,0.6146638353839319,-0.32911944159615353,0.014744247396058174,-0.008551276493916404
300bus.pwf,17,151,249,250,-0.2259063979772063,-0.15352089733914093,0.23000000000000026,0.16586151252798392,0.004093602022793963,0.012340615188842996
300bus.pwf,17,152,19,87,2.982297241933832,-0.4363444400726304,-2.8696579042931756,0.9695148940591856,0.11263933764065648,0.5331704539865552
300bus.pwf,17,153,74,88,-0.7132865867602379,-0.5676168486143525,0.7161844625722954,0.5310536239234651,0.002897875812057471,-0.03656322469088735
300bus.pwf,17,154,178,180,-2.1596361238851705,-1.3483511196918365,2.2062439648344494,1.4951064482715517,0.046607840949278945,0.14675532857971518
300bus.pwf,17,155,140,146,-0.25370139417891036,-0.13972129735988692,0.2567028038104259,-0.3642846933886086,0.003001409631515517,-0.5040059907484955
300bus.pwf,17,156,2,6,1.0832230563569083,0.47895897890373385,-1.0820143102162922,-0.4680802636382,0.0012087461406160571,0.010878715265533856
300bus.pwf,17,157,126,169,0.5500764132319022,-0.41530110457021696,-0.5431425849967916,0.2906113918587253,0.006933828235110573,-0.12468971271149165
300bus.pwf,17,158,109,114,0.10447109928770051,-0.04191175361315762,-0.1033717661988516,0.005326570415542232,0.0010993330888489083,-0.03658518319761539
300bus.pwf,17,159,35,77,-0.4904465507850673,-0.2252622046178589,0.49311006833049614,0.2296793492920019,0.0026635175454288174,0.004417144674143003
300bus.pwf,17,160,73,76,0.26721179327440703,0.03618031042718951,-0.2657750669927553,-0.0645417702256398,0.0014367262816517012,-0.028361459798450284
300bus.pwf,17,161,76,77,-0.694801983109914,-0.2769539182038021,0.703174311082425,0.2950930209639968,0.008372327972510973,0.018139102760194703
300bus.pwf,17,162,99,107,-0.19571470527998838,0.21575512097292127,0.19972040259737958,-0.22530720678007843,0.004005697317391199,-0.009552085807157162
300bus.pwf,17,163,196,210,-0.2575949513132286,-0.06207596380222932,0.2594791614019293,0.0559640173533503,0.0018842100887006552,-0.006111946448879024
300bus.pwf,17,164,62,64,2.097946049800312,0.20088312545951714,-2.034968345937555,-0.010705971053439622,0.06297770386275703,0.19017715440607752
300bus.pwf,17,165,139,172,0.29510206360381347,-0.06530602858699407,-0.2906442499941228,-0.005430859004606284,0.004457813609690664,-0.07073688759160035
300bus.pwf,17,166,192,225,0.05079462523138217,-1.2911805766283444,-0.04667184149679854,1.3097331034339939,0.004122783734583635,0.01855252680564945
300bus.pwf,17,167,4,16,12.278002317259151,0.6781610894654642,-12.002662418963137,0.7168582217557335,0.27533989829601424,1.3950193112211977
300bus.pwf,17,168,181,187,-6.4554041979411,-1.1740800612357518,6.46989622856795,1.3371361680087646,0.014492030626850116,0.16305610677301274
300bus.pwf,17,169,140,142,0.8101246063681263,-0.12478876122566042,-0.8005503592435236,-0.570061845000295,0.009574247124602753,-0.6948506062259554
300bus.pwf,17,170,205,206,0.015732313547430064,-0.04522953070608762,-0.015128148211675817,0.04612177487743377,0.0006041653357542476,0.000892244171346146
300bus.pwf,17,171,109,113,0.035297530545882534,0.06382967847953587,-0.03460107836062593,-0.09611132911261418,0.0006964521852566019,-0.03228165063307831
300bus.pwf,17,172,219,237,-0.5503523141680459,-2.981711193750777,0.5504341022247784,-3.309121369876073,8.178805673253464e-5,-6.29083256362685
300bus.pwf,17,173,35,72,0.48746603272615174,-0.04834376868884252,-0.4848307273822734,0.05281599562326025,0.002635305343878347,0.0044722269344177334
300bus.pwf,17,174,140,147,-0.4652533209590552,-0.15402494614396633,0.4754357092762609,-0.3864009257968145,0.010182388317205693,-0.5404258719407808
300bus.pwf,17,175,3,19,1.763885298180733,-0.08572208609141682,-1.740257940208754,0.14392173670436534,0.023627357971979013,0.05819965061294852
300bus.pwf,17,176,38,43,0.22910684560420647,-0.20672686318179045,-0.22642397581119544,0.17211158681883254,0.0026828697930110224,-0.034615276362957914
300bus.pwf,17,177,58,59,-0.8105285550329169,0.6364861659409615,0.8189328572826449,-0.6178684423729481,0.00840430224972799,0.01861772356801339
300bus.pwf,17,178,136,137,0.9066852529399647,-0.3935415165910775,-0.8978650591337585,-0.17639752104754333,0.008820193806206245,-0.5699390376386209
300bus.pwf,17,179,133,171,7.647576634382102,1.9949211589086677,-7.636000000000003,-1.4103011226126942,0.011576634382099549,0.5846200362959735
300bus.pwf,17,180,216,217,-0.1586663547926874,-0.5565320932873558,0.1598698120369135,0.5515814338145194,0.0012034572442261027,-0.0049506594728363496
300bus.pwf,17,181,118,121,0.5184572144791787,0.23389776406430457,-0.5176825360045357,-0.13125286617410353,0.0007746784746429647,0.10264489789020104
300bus.pwf,17,182,9002,9021,0.07253975895502829,-0.037498164666374484,-0.07224172934799067,0.03788810061033168,0.0002980296070376198,0.0003899359439571981
300bus.pwf,17,183,54,55,-0.3201593576048838,0.15109178756301417,0.32452361151132525,-0.18830295359705324,0.004364253906441462,-0.03721116603403907
300bus.pwf,17,184,86,323,-0.14864965101967628,0.1578558088521942,0.14900000000000144,-0.25851625621097485,0.0003503489803251547,-0.10066044735878066
300bus.pwf,17,185,108,324,0.25098408256120697,-0.04542732714919907,-0.2470000000000002,0.026057058646496892,0.003984082561206775,-0.01937026850270218
300bus.pwf,17,186,43,53,0.3159576695976339,-0.051193544686626846,-0.31470733848151916,0.03807124492069114,0.0012503311161147224,-0.013122299765935708
300bus.pwf,17,187,22,23,-0.9682231737173034,-0.044852356500678536,1.0128575696263962,0.08256676708927213,0.044634395909092794,0.037714410588593594
300bus.pwf,17,188,186,188,6.557978852173828,0.9056285033198483,-6.532548541978943,-0.7310121072560085,0.025430310194884953,0.17461639606383983
300bus.pwf,17,189,3,150,-3.228808249825336,1.1591442960801408,3.2399793391980665,-1.0809466704710053,0.011171089372730592,0.07819762560913546
300bus.pwf,17,190,86,87,-1.852947417942832,0.599382557188954,1.8945215683798853,-0.4795438648248949,0.04157415043705326,0.11983869236405903
300bus.pwf,17,191,69,79,-0.07755026091290941,-0.06710724183699915,0.07797412435862618,0.04321191390167802,0.0004238634457167656,-0.023895327935321127
300bus.pwf,17,192,9002,9012,-0.043060994681733696,0.03034658292709242,0.04323704579927102,-0.029346773339881622,0.0001760511175373236,0.0009998095872107982
300bus.pwf,17,193,128,130,-0.8932289759431518,-0.214959029480831,0.8991290649197654,0.13434817049961945,0.005900088976613649,-0.08061085898121156
300bus.pwf,17,194,176,177,1.059170230164127,-0.08952796460442364,-1.025565610173386,0.16170524310492623,0.033604619990740936,0.0721772785005026
300bus.pwf,17,195,130,168,0.8883384058560727,0.13368627398286037,-0.8825755901245952,-0.2137365870267356,0.005762815731477522,-0.08005031304387522
300bus.pwf,17,196,98,102,0.05486589727802077,0.11826435667660773,-0.054325674422184334,-0.13423457916672232,0.0005402228558364364,-0.015970222490114594
300bus.pwf,17,197,232,233,1.0415789480881505,-0.16047615170585017,-1.0400000000000003,0.20552261186778464,0.0015789480881502893,0.045046460161934476
300bus.pwf,17,198,73,79,-0.26569674873062493,-0.1505680389547735,0.2671984544672534,0.13517691666060477,0.0015017057366284448,-0.015391122294168724
300bus.pwf,17,199,71,72,-0.2651808966434349,0.12414629650934764,0.2683191392546326,-0.18726003528280913,0.0031382426111976613,-0.06311373877346149
300bus.pwf,17,200,43,44,-0.39528747489029353,-0.11808580723689958,0.39937514782048883,0.09178580986896571,0.004087672930195296,-0.02629999736793387
300bus.pwf,17,201,248,249,0.06422524276874897,-0.009737285648146386,-0.06409360202279346,0.010113830687862122,0.000131640745955508,0.0003765450397157366
300bus.pwf,17,202,194,219,1.3000735368889336,-0.587032174451595,-1.2954961597471408,0.026655571703267433,0.004577377141792738,-0.5603766027483275
300bus.pwf,17,203,3,7,0.8267231234994786,0.09644761859766504,-0.8267231234994786,-0.09447485499543973,0.0,0.0019727636022253137
300bus.pwf,17,204,152,153,-0.15869038194718688,0.7693364306284037,0.1674496334290242,-0.8630893603620701,0.008759251481837316,-0.09375292973366633
300bus.pwf,17,205,138,188,-4.42042657659711,0.8319754967189663,4.427114958065613,-0.49421223255957436,0.006688381468503479,0.33776326415939195
300bus.pwf,17,206,137,188,-5.184196972574246,-1.6569976044443555,5.196837515510713,1.7182065468577283,0.012640542936466659,0.061208942413372824
300bus.pwf,17,207,7,131,-2.817274466762201,0.9387861614418704,2.8256626923786405,-0.8947593124411832,0.008388225616439371,0.04402684900068721
300bus.pwf,17,208,97,100,0.31267020019816644,-0.17475297947016383,-0.31030885844787387,0.17215102314814995,0.002361341750292567,-0.0026019563220138764
300bus.pwf,17,209,138,181,-3.846573423402887,0.8499544633271902,3.851703522371972,-0.5908844653884094,0.005130098969084784,0.2590699979387807
300bus.pwf,17,210,92,105,1.2956127248768567,0.055922472280782176,-1.2719728294151957,0.05775210719445145,0.02363989546166101,0.11367457947523363
300bus.pwf,17,211,92,103,0.6433922799452974,0.03305565896166514,-0.6368626860808557,-0.0038859246632444028,0.00652959386444163,0.029169734298420735
300bus.pwf,17,212,104,108,0.39535612682911675,-0.2776477874795745,-0.38117268005370136,0.24990330720417173,0.014183446775415387,-0.0277444802754028
300bus.pwf,17,213,155,161,-0.7469414953500566,-0.6156934596432082,0.7558952948214968,0.2915321451721047,0.00895379947144015,-0.3241613144711035
300bus.pwf,17,214,226,231,-0.44212691390820397,-2.0542035608984,0.444104787079774,2.1380653833729744,0.001977873171570055,0.08386182247457441
300bus.pwf,17,215,130,167,1.5178521741715219,0.5142796680619012,-1.4992554675288918,-0.4639355867373497,0.018596706642630023,0.05034408132455148
300bus.pwf,17,216,79,211,-0.08206232212587397,-0.07158332565951668,0.08283150044711754,0.01670051341988014,0.0007691783212435688,-0.054882812239636536
300bus.pwf,17,217,194,664,-1.1367063640761368,0.37999517093292856,1.1400000000000003,-0.7571073474874617,0.003293635923863558,-0.3771121765545331
300bus.pwf,17,218,23,25,1.2618950261934616,0.12463780959535059,-1.2366023076554873,-0.09399701641393493,0.025292718537974324,0.03064079318141566
300bus.pwf,17,219,9001,9005,-0.2651382746729792,-0.5973909491103262,0.2654776372006549,0.5988671761057907,0.00033936252767574615,0.001476226995464458
300bus.pwf,17,220,128,133,0.361250923345628,0.04193035867716647,-0.3609295657017921,-0.07198082251568708,0.0003213576438358956,-0.030050463838520607
300bus.pwf,17,221,206,208,-0.014226976728629857,0.02434536237896526,0.014389006172626204,-0.024061135729288283,0.00016202944399634767,0.0002842266496769774
300bus.pwf,17,222,133,168,-0.3529491565415479,-0.07127354170064559,0.3532565994455683,0.04112085011079069,0.0003074429040204052,-0.030152691589854903
300bus.pwf,17,223,78,79,0.746384605233405,0.23519083494957807,-0.7431102567000044,-0.23548239596387158,0.003274348533400584,-0.00029156101429350656
300bus.pwf,17,224,9002,9012,-0.043060994681733696,0.03034658292709242,0.04323704579927102,-0.029346773339881622,0.0001760511175373236,0.0009998095872107982
300bus.pwf,17,225,41,49,1.3782580632975785,0.32979189517644214,-1.2528155415165698,0.020236231026549478,0.12544252178100868,0.3500281262029916
300bus.pwf,17,226,9,11,0.4770767487450288,-0.28826338602666485,-0.47541110232423367,0.2813378000647558,0.0016656464207951416,-0.006925585961909064
300bus.pwf,17,227,91,97,0.9512890154453105,-0.0825496837359384,-0.9347721713104132,0.09371391645452498,0.01651684413489729,0.011164232718586575
300bus.pwf,17,228,16,42,8.637493193114718,-1.4502394108875678,-8.49546371924318,1.6352511885849013,0.14202947387153841,0.18501177769733346
300bus.pwf,17,229,46,81,3.156451038470261,-1.223761476861294,-3.10840145363832,0.8418602506449657,0.048049584831940884,-0.3819012262163284
300bus.pwf,17,230,9003,9006,-0.07987132082773901,0.04554452283281678,0.08065133041346256,-0.042083519695299706,0.0007800095857235512,0.0034610031375170713
300bus.pwf,17,231,45,60,-3.3401033228344055,0.43962418349277044,3.412932707092775,-0.3611240996236046,0.0728293842583696,0.07850008386916585
300bus.pwf,17,232,80,211,-0.27993168524885237,-0.12387502404600495,0.28162619036983527,0.06589000544901394,0.0016945051209829032,-0.05798501859699101
300bus.pwf,17,233,153,161,1.1133735297631897,0.29097844747757784,-1.1058952948214962,-0.44291300057902583,0.007478234941693529,-0.151934553101448
300bus.pwf,17,234,26,27,0.46263242173267133,0.006676840625478575,-0.45382453170590836,-0.05328557759115993,0.008807890026762966,-0.04660873696568135
300bus.pwf,17,235,20,22,-0.15739646305262842,0.17070372980837362,0.15822317371730574,-0.18543663608987188,0.0008267106646773215,-0.01473290628149826
300bus.pwf,17,236,36,88,-1.1242367212488618,-0.13255120562432116,1.128774436883765,0.1144903797280789,0.00453771563490335,-0.01806082589624225
300bus.pwf,17,237,243,244,0.56716756140971,0.23206108199976128,-0.5630146799869127,-0.2204526339281665,0.00415288142279735,0.011608448071594779
300bus.pwf,17,238,81,195,1.0991634210323264,-0.6807263753191228,-1.095124317682928,0.09573830114721237,0.0040391033493984985,-0.5849880741719105
300bus.pwf,17,239,197,211,-0.2497885518495246,-0.04143238204751942,0.2506229699051052,0.036740102854539214,0.0008344180555805991,-0.004692279192980209
300bus.pwf,17,240,77,609,0.3024210123885251,-0.011112765902967087,-0.29599999999999976,0.004551749781645437,0.006421012388525327,-0.00656101612132165
300bus.pwf,17,241,215,216,1.6130003918299554,0.5290379721062437,-1.6013336452073117,-0.49301784348884187,0.011666746622643664,0.036020128617401836
300bus.pwf,17,242,245,247,0.05965808574200296,-0.020950371452598385,-0.0595257912545705,0.021729071505013034,0.00013229448743246053,0.0007787000524146492
300bus.pwf,17,243,118,119,-9.038283289104916,-3.461232395007073,9.038283289104916,6.224286796168485,0.0,2.763054401161412
300bus.pwf,17,244,234,237,0.1267447431374526,-1.8060554812166596,-0.12497203529102624,1.8864182369213292,0.001772707846426358,0.08036275570466955
300bus.pwf,17,245,37,89,-0.5205287139459256,0.052526331050776726,0.5482603722747157,-0.018446225884768935,0.0277316583287901,0.03408010516600779
300bus.pwf,17,246,15,37,1.0392524310333564,-0.08427505493748816,-0.9738396033716624,0.20753655062891857,0.06541282766169398,0.12326149569143041
300bus.pwf,17,247,77,552,-0.10991400280960717,-0.054820219401068855,0.1110000000000001,0.025181570614698175,0.0010859971903929289,-0.02963864878637068
300bus.pwf,17,248,119,120,1.5146698124287035,1.2090327922383892,-1.5146698124287035,-1.1012372839774471,0.0,0.10779550826094209
300bus.pwf,17,249,19,21,-1.2420393017250775,0.29747170889070373,1.2451944266223518,-0.3064547899436074,0.0031551248972743196,-0.008983081052903685
300bus.pwf,17,250,190,231,5.3673005923458765,-3.6713586710730186,-5.357775217858097,-3.764223813310171,0.009525374487779459,-7.43558248438319
300bus.pwf,17,251,136,152,-3.6427929934782783,0.17425584155735518,3.7086903819471893,-0.8344596792409622,0.06589738846891091,-0.660203837683607
300bus.pwf,17,252,193,205,-0.007502657356431415,0.07825915240363776,0.007743373860377163,-0.077922149298113,0.00024071650394574817,0.000337003105524758
300bus.pwf,17,253,193,208,0.022366070048278147,-0.04278790428910705,-0.022269232946623835,0.043044119120567485,9.683710165431236e-5,0.0002562148314604329
300bus.pwf,17,254,214,242,-0.02794434233433154,0.048105977482935776,0.027948561957727124,-0.05035398214923493,4.219623395584904e-6,-0.0022480046662991526
300bus.pwf,17,255,33,34,-2.402443870446949,-0.083303205755211,2.402443870446949,0.4300628052160391,0.0,0.3467595994608281
300bus.pwf,17,256,120,1200,-1.0000000000000018,0.38027849848342754,1.0000000000000018,-0.35640821116838595,0.0,0.023870287315041594
300bus.pwf,17,257,89,91,-0.5738117435167387,-0.19704898686115863,0.5893323733337856,0.22013669916083772,0.015520629817046938,0.023087712299679097
300bus.pwf,17,258,129,130,-0.7520758012238452,-0.26822664845328514,0.7563469368753896,0.176059289595643,0.0042711356515443555,-0.09216735885764216
300bus.pwf,17,259,105,107,0.7571797699100395,0.04732969334914426,-0.751252170541999,-0.01656153746809029,0.005927599368040548,0.03076815588105397
300bus.pwf,17,260,175,176,-0.5871351018065544,0.3649829344021486,0.6345744246195496,-0.21753572749254704,0.04743932281299523,0.14744720690960153
300bus.pwf,17,261,62,144,-2.893059067595824,0.5734439770315969,2.9006720525082796,-0.535008815589985,0.007612984912455545,0.038435161441611854
300bus.pwf,17,262,246,247,-0.016744676356871196,-0.0727518940303646,0.016883876176711537,0.07341932600236052,0.00013919981984034102,0.0006674319719959243
300bus.pwf,17,263,69,211,-0.17999130585482045,-0.13249289912587708,0.18216518340608542,0.11100473762926392,0.002173877551264969,-0.02148816149661316
300bus.pwf,17,264,137,140,5.302558454225361,-0.240971839323462,-5.266506244630989,0.18423041891227643,0.03605220959437183,-0.05674142041118557
300bus.pwf,17,265,33,41,-0.21845860842339468,0.08818401111825011,0.2188459454756709,-0.11302885735530196,0.0003873370522762265,-0.024844846237051854
300bus.pwf,17,266,44,54,0.15928023916723427,0.05632878793353549,-0.15848004282147649,-0.09396144952901289,0.0008001963457577865,-0.0376326615954774
300bus.pwf,17,267,49,51,-1.4884802647423843,-0.03809735561875921,1.5729041838454425,0.2564622110725899,0.08442391910305824,0.21836485545383066
300bus.pwf,17,268,212,215,-0.4141115392484781,0.3860716086533942,0.41840489173113504,-0.46048823206676603,0.0042933524826569425,-0.07441662341337185
300bus.pwf,17,269,9012,9121,0.03839254273077499,-0.022280824851372148,-0.03799999999999989,0.02393146436755098,0.0003925427307751028,0.0016506395161788312
300bus.pwf,17,270,47,73,0.2259776334028715,-0.17076992044448014,-0.22264422040153745,0.10153711654628461,0.0033334130013340513,-0.06923280389819553
300bus.pwf,17,271,140,145,0.1520221337342631,-0.11436880799615995,-0.14968595528468975,-0.4355780578433848,0.002336178449573345,-0.5499468658395448
300bus.pwf,17,272,52,55,-0.9400507632212465,-0.21258765350399855,0.9657077299426988,0.2520899103783947,0.025656966721452346,0.039502256874396124
300bus.pwf,17,273,72,77,-0.4939595510502812,-0.057993894730174037,0.4980514170021766,0.06567617032486862,0.004091865951895368,0.0076822755946945875
300bus.pwf,17,274,154,156,-0.244017461144388,0.17387461180813404,0.26417182218857765,-0.1701898024763542,0.02015436104418966,0.003684809331779837
300bus.pwf,17,275,137,186,-4.829537270045752,-1.0150224691824545,4.844021147826174,1.177515158372884,0.014483877780421928,0.16249268919042947
300bus.pwf,17,276,127,134,-1.0656545210715476,-0.921373187311928,1.0740155761600136,0.7529424738855248,0.008361055088466074,-0.16843071342640314
300bus.pwf,17,277,184,185,-1.9908910336244872,-0.6460721459351318,2.000000000000002,0.5401076243643202,0.00910896637551506,-0.1059645215708116
300bus.pwf,17,278,43,48,-0.08424621889614338,-0.03955170852098619,0.08493022389054662,0.007161160041659866,0.0006840049944032423,-0.03239054847932632
300bus.pwf,17,279,244,246,0.5630146799869138,0.21917068338097126,-0.5566480382993948,-0.20118083943316536,0.006366641687518992,0.017989843947805895
300bus.pwf,17,280,130,132,1.3886009185283774,0.8102830963808367,-1.3848888868777884,-0.8010683414460482,0.003712031650588976,0.009214754934788516
300bus.pwf,17,281,234,235,0.035531865132580026,0.9932381843935384,-0.03532404302432221,-1.1221336683805898,0.00020782210825781577,-0.12889548398705142
300bus.pwf,17,282,133,137,-6.872087867959435,-2.744584434646291,6.957038617431639,3.004229988863279,0.08495074947220438,0.25964555421698776
300bus.pwf,17,283,40,48,-0.0031434386182844585,-0.11802945085070173,0.003423730338292222,0.09617686453215958,0.0002802917200077637,-0.021852586318542144
300bus.pwf,17,284,142,143,-1.3059382618252888,-1.0832156665588328,1.3178837566340909,0.32970297884822897,0.011945494808802026,-0.7535126877106039
300bus.pwf,17,285,240,281,-0.3309476480472289,-0.3035233063053459,0.33100000000000357,0.29402014858941977,5.2351952774642996e-5,-0.009503157715926136
300bus.pwf,17,286,59,61,-2.998932857282643,-0.4098873199555429,3.0152326392466033,0.49880757884376564,0.016299781963960314,0.08892025888822275
300bus.pwf,17,287,110,112,0.15986426994935724,-0.06856370864852573,-0.15644744208429376,0.022011286626149873,0.0034168278650634765,-0.04655242202237586
300bus.pwf,17,288,145,149,-0.5157684772078643,-0.6132890428278989,0.5267220149168057,0.4400071829844879,0.010953537708941363,-0.173281859843411
300bus.pwf,17,289,243,245,0.19283243859028934,0.13732988472297963,-0.19124153045473438,-0.12852620902806772,0.0015909081355549581,0.008803675694911917
300bus.pwf,17,290,99,110,0.511040982009366,0.009620935256327678,-0.4999661300535054,0.003497832689329128,0.01107485195586061,0.013118767945656806
300bus.pwf,17,291,141,146,-0.15736683923427067,-0.0739994965584839,0.1583749776557454,-0.30527504148380735,0.0010081384214747358,-0.3792745380422913
300bus.pwf,17,292,5,9,1.4483828425360792,0.17106122046919792,-1.4370767487450293,-0.13653179603829058,0.011306093791049854,0.03452942443090734
300bus.pwf,17,293,189,209,-0.04016019297952974,-0.020974495546760293,0.040240452260255154,0.021094884467846638,8.025928072541433e-5,0.00012038892108634514
300bus.pwf,17,294,9003,9006,-0.07987132082773901,0.04554452283281678,0.08065133041346256,-0.042083519695299706,0.0007800095857235512,0.0034610031375170713
300bus.pwf,17,295,221,223,3.2563469152903703,2.053289563605506,-3.251647551543263,-3.140051037520823,0.0046993637471075544,-1.0867614739153169
300bus.pwf,17,296,191,225,6.547938420567179,2.724039005647981,-6.497105911388872,0.37674405422870927,0.050832509178306395,3.10078305987669
300bus.pwf,17,297,8,11,-0.39605411553017844,-0.03939657690916408,0.3979119030061853,0.011353243142851452,0.0018577874760068447,-0.028043333766312628
300bus.pwf,17,298,228,229,-2.1688467129238433,0.9011920930025422,2.181886894703981,-2.1663484020074075,0.013040181780137772,-1.2651563090048654
300bus.pwf,17,299,44,47,1.064613196891807,-0.1648445301575035,-1.0360999112163416,0.21142549279174833,0.028513285675465294,0.04658096263424483
300bus.pwf,17,300,100,102,0.26762402987296185,0.031237938774122606,-0.26664314198810624,-0.03363317453941071,0.000980887884855619,-0.0023952357652881062
300bus.pwf,17,301,97,103,0.10865882431223711,-0.04380008331902982,-0.1081298182975246,0.027426968387932543,0.0005290060147125075,-0.016373114931097277
300bus.pwf,17,302,231,237,-4.525833243275423,-4.94429560063415,4.52817931892559,0.6472141145215752,0.0023460756501663127,-4.297081486112575
300bus.pwf,17,303,198,211,0.4464457865348131,0.08935727238796194,-0.4405131158151701,-0.10822928721683074,0.005932670719642985,-0.0188720148288688
300bus.pwf,17,304,247,248,0.41519459232331063,-0.2645538343537656,-0.4057009099157451,0.2915043580107565,0.00949368240756554,0.02695052365699091
300bus.pwf,17,305,148,178,0.8531223893817642,0.9096442648809326,-0.780598641683213,-0.7726417087401904,0.07252374769855119,0.1370025561407422
300bus.pwf,17,306,109,110,-0.12273690453805697,0.03301754320503648,0.12379627508462254,-0.05394287146978794,0.0010593705465655745,-0.020925328264751464
300bus.pwf,17,307,7071,71,1.16,0.8700000099718288,-1.16,-0.7510311594184031,0.0,0.11896885055342565
300bus.pwf,17,308,7023,23,1.8500000000000032,-9.94035076473665e-9,-1.8500000000000032,0.06513644118935957,0.0,0.06513643124900881
300bus.pwf,17,309,223,224,-1.0283524484567286,0.8214201784381621,1.03023741681378,-0.3999251860907284,0.0018849683570514308,0.42149499234743365
300bus.pwf,17,310,143,148,1.9218144719088743,1.4878015807099634,-1.9158586079193578,-1.3178303853168356,0.00595586398951653,0.16997119539312777
300bus.pwf,17,311,142,175,1.5414886210688137,1.411403259614762,-1.5317917858386811,-1.1281333930846391,0.009696835230132539,0.283269866530123
300bus.pwf,17,312,163,137,2.223265207857585,-0.6096068984423023,-2.2171078492885288,0.8581805425228782,0.006157358569056193,0.24857364408057592
300bus.pwf,17,313,45,46,-2.3456500529355204,0.0054726856651114986,2.3456500529355204,0.0987762631346456,0.0,0.1042489487997571
300bus.pwf,17,314,145,180,2.907788344144185,2.2272844153563813,-2.9012439648344457,-1.9890690084818718,0.006544379309739501,0.23821540687450948
300bus.pwf,17,315,9003,9032,0.014029131814331639,-0.00230620785823317,-0.01389999999999999,0.0031256072454403515,0.00012913181433164833,0.0008193993872071814
300bus.pwf,17,316,7011,11,2.339999999999997,1.0000000099226298,-2.339999999999997,-0.891765557565023,0.0,0.10823445235760687
300bus.pwf,17,317,81,88,1.8449588994560597,0.6926481794559223,-1.8449588994560597,-0.6260652057618685,0.0,0.06658297369405375
300bus.pwf,17,318,7130,130,12.919999999999996,3.6549454908608183,-12.919999999999996,-0.7793248770873262,0.0,2.875620613773492
300bus.pwf,17,319,3,4,12.278002317259153,1.346666378394275,-12.278002317259153,-0.663982051321284,0.0,0.682684327072991
300bus.pwf,17,320,7024,24,4.099999999999999,1.40803271597089,-4.099999999999999,-0.9499288371005576,0.0,0.45810387887033244
300bus.pwf,17,321,7002,2,6.230000000000005,1.5170224270901649,-6.196021275849513,-1.020933054492982,0.03397872415049186,0.4960893725971829
300bus.pwf,17,322,7,5,0.9266066284215598,0.5435628071130587,-0.9266066284215598,-0.5051471150874356,0.0,0.038415692025623116
300bus.pwf,17,323,86,102,0.6889927164014485,-0.42348213342285845,-0.6889927164014485,0.45117353236242863,0.0,0.027691398939570178
300bus.pwf,17,324,201,69,-0.25754156676772916,-0.19481173619684,0.25754156676772916,0.20460164155908167,0.0,0.009789905362241669
300bus.pwf,17,325,10,11,-0.094166679732579,-0.43594764045396595,0.094166679732579,0.4530523225341465,0.0,0.017104682080180567
300bus.pwf,17,326,9004,9042,0.008162256080085651,-0.002025305402145263,-0.008100000000000001,0.002345818720709488,6.225608008565003e-5,0.00032051331856422505
300bus.pwf,17,327,132,170,1.3724252224758702,0.640906457487728,-1.3701121292918192,-0.5479201114888791,0.0023130931840509295,0.09298634599884892
300bus.pwf,17,328,9005,9054,-0.49999999999999994,-0.32206920104756076,0.49999999999999994,0.3800000099937213,0.0,0.05793080894616054
300bus.pwf,17,329,7044,44,0.3699999999999999,0.42000000998774123,-0.3699999999999999,-0.3739562182689049,0.0,0.046043791718836324
300bus.pwf,17,330,9003,9031,0.018616467118611466,-0.002768523213089241,-0.018400000000000007,0.00414212060148878,0.0002164671186114589,0.001373597388399539
300bus.pwf,17,331,7057,57,1.6499999999999992,0.9000000099900376,-1.6499999999999992,-0.7510628312265055,0.0,0.14893717876353207
300bus.pwf,17,332,16,15,3.3651692258484247,0.7653910113266316,-3.354565214922719,-0.362438596149808,0.01060401092570551,0.40295241517682356
300bus.pwf,17,333,211,212,-1.3123986491375703,-0.23101599649879956,1.3169982013865074,0.24972084231113667,0.004599552248937044,0.018704845812337112
300bus.pwf,17,334,9005,9053,0.012360771081857864,-0.16229181497244433,-0.01189999999999997,0.1732346967329716,0.00046077108185789417,0.010942881760527268
300bus.pwf,17,335,9003,9037,0.018715548307299105,-0.0033857820803714776,-0.018599999999999995,0.004157665186964074,0.00011554830729910981,0.0007718831065925964
300bus.pwf,17,336,130,131,2.825662692378635,-0.7502623431581839,-2.825662692378635,0.9016892463350459,0.0,0.15142690317686203
300bus.pwf,17,337,116,124,2.804937007280626,0.33729389385646513,-2.759146526204089,-0.18407189948497304,0.04579048107653705,0.1532219943714921
300bus.pwf,17,338,9003,9034,0.015527069344091655,-0.0031144033592528713,-0.015499999999999993,0.0034039533477224,2.7069344091662506e-5,0.0002895499884695285
300bus.pwf,17,339,209,198,-0.4202404522602556,-0.15360072180401485,0.4249077833765608,0.19147790894018357,0.00466733111630524,0.03787718713616872
300bus.pwf,17,340,7012,12,3.7199999999999993,2.2400000223260434,-3.7199999999999993,-1.748044271817271,0.0,0.4919557505087724
300bus.pwf,17,341,121,115,1.9107930543097813,1.0707986128851061,-1.9107930543097813,-0.9364618964591358,0.0,0.13433671642597034
300bus.pwf,17,342,7,6,0.11798568978369887,-0.06303893077402734,-0.11798568978369887,0.06364849709547826,0.0,0.0006095663214509273
300bus.pwf,17,343,73,74,-2.6335346595261746,-0.3494327348864843,2.6335346595261746,0.5083166387794549,0.0,0.15888390389297058
300bus.pwf,17,344,241,237,5.7479999999999976,0.032308262881437094,-5.734346881337436,0.38820779192547317,0.013653118662561248,0.42051605480691023
300bus.pwf,17,345,164,155,2.2736076772663,0.5185639720159477,-2.2684294956727067,-0.3552901321861418,0.005178181593593401,0.16327383982980592
300bus.pwf,17,346,45,44,3.203268583879529,0.045793540229837504,-3.203268583879529,0.1423763373445155,0.0,0.188169877574353
300bus.pwf,17,347,238,239,-5.483154070289402,2.029928152399185,5.5,-1.49085840166004,0.016845929710598284,0.5390697507391449
300bus.pwf,17,348,9003,9038,0.02605397404288313,-0.003849967959390265,-0.025799999999999986,0.005557787973954474,0.0002539740428831455,0.0017078200145642093
300bus.pwf,17,349,9021,9022,0.015393818343624445,-0.00407301933103373,-0.015300000000000001,0.004668361051734256,9.381834362444386e-5,0.0005953417207005263
300bus.pwf,17,350,218,219,-0.836252017669909,-0.6011258201923727,0.8371627564419323,0.6454659729638482,0.0009107387720233007,0.044340152771475516
300bus.pwf,17,351,229,230,-3.4282398390026554,3.1147646674072647,3.45,-2.392327322295408,0.02176016099734479,0.7224373451118566
300bus.pwf,17,352,9007,9072,0.010230998789436636,-0.004008674809977476,-0.010200000000000032,0.004215756226810264,3.0998789436603724e-5,0.00020708141683278836
300bus.pwf,17,353,36,35,1.1242367212488598,0.1497136416631797,-1.1242367212488598,-0.0948688909062767,0.0,0.05484475075690298
300bus.pwf,17,354,234,236,-5.978776878553538,-2.320860143226445,6.000000000000002,3.0000000295132785,0.021223121446463544,0.6791398862868334
300bus.pwf,17,355,7001,1,4.670000000000005,1.7122596281314557,-4.670000000000005,-1.3129319368136976,0.0,0.39932769131775814
300bus.pwf,17,356,7003,3,12.100000000000001,4.200000041949735,-12.100000000000001,-2.664201636854571,0.0,1.5357984050951643
300bus.pwf,17,357,130,150,3.239979339198056,-0.9319867353982687,-3.239979339198056,1.0886047240523453,0.0,0.1566179886540766
300bus.pwf,17,358,151,170,1.4003434034066897,0.694101534248125,-1.397887870708179,-0.597844652466501,0.0024555326985107317,0.09625688178162406
300bus.pwf,17,359,9007,9071,0.01024228366075798,-0.003168754482497263,-0.01020000000000002,0.003453086224874338,4.228366075795936e-5,0.00028433174237707526
300bus.pwf,17,360,153,183,0.8791768368077878,0.07211090323348489,-0.8768110447223002,-0.016120490543611962,0.0023657920854875947,0.055990412689872926
300bus.pwf,17,361,213,214,2.7200000000000006,0.8750311175584701,-2.7031320675742077,-0.6186385446864145,0.016867932425792986,0.2563925728720555
300bus.pwf,17,362,9003,9035,0.016730473164615258,-0.002940316416635223,-0.0166,0.0037682141934281526,0.00013047316461525793,0.0008278977767929296
300bus.pwf,17,363,200,248,-0.05147566714699586,-0.08750232118020929,0.05147566714699586,0.08958987113897265,0.0,0.0020875499587633684
300bus.pwf,17,364,7049,49,-4.416290860705098,0.0,4.416290860705098,0.2985740184653167,0.0,0.2985740184653167
300bus.pwf,17,365,143,144,2.9006720525082823,0.07470608849077287,-2.9006720525082823,0.5622082040551941,0.0,0.636914292545967
300bus.pwf,17,366,9005,9052,0.3016987328958374,0.18016300070432595,-0.2999999999999999,-0.139808944092562,0.0016987328958374959,0.040354056611763944
300bus.pwf,17,367,159,117,-9.058301434740306,1.7473649299634886,9.058301434740306,-0.33182141913474794,0.0,1.4155435108287406
300bus.pwf,17,368,182,139,-0.7540001391242949,-1.6136079724339785,0.7548979363961851,1.652811786639855,0.0008977972718902105,0.0392038142058766
300bus.pwf,17,369,189,210,-0.09212143173480881,-0.04539076958571897,0.09212143173480881,0.047787326712375844,0.0,0.002396557126656873
300bus.pwf,17,370,122,157,-1.2857792193327893,1.0035070449227042,1.2871613841567409,-0.9496026167885723,0.0013821648239515927,0.053904428134131877
300bus.pwf,17,371,3,1,0.29711215433969795,0.2320892636817753,-0.29711215433969795,-0.22579730997175673,0.0,0.006291953710018561
300bus.pwf,17,372,7017,17,3.2999999999999976,3.5000000349860443,-3.2999999999999976,-3.1943207418377852,0.0,0.30567929314825903
300bus.pwf,17,373,9004,9043,0.016034841890011847,-0.003233342091208704,-0.016000000000000025,0.003611199831387992,3.484189001182192e-5,0.0003778577401792882
300bus.pwf,17,374,63,64,-2.0349683459375556,0.10328865535914389,2.0349683459375556,0.046025391097145985,0.0,0.14931404645628987
300bus.pwf,17,375,141,174,1.0041158005397046,0.4068128805732137,-1.0017961622318974,-0.3485319680895536,0.002319638307807237,0.058280912483660074
300bus.pwf,17,376,7061,61,3.999999999999999,1.5000000149822483,-3.999999999999999,-1.1410330791269345,0.0,0.3589669358553138
300bus.pwf,17,377,7139,139,6.999999999999999,3.2500000319228803,-6.999999999999999,-2.419660441726208,0.0,0.8303395901966724
300bus.pwf,17,378,160,124,-0.9265511487952994,0.6761110132270987,0.928271955347811,-0.6193243969942039,0.0017208065525116112,0.056786616232894715
300bus.pwf,17,379,9001,9006,0.2544571273394527,-0.14463240429256405,-0.25246725365863865,0.1802706421463248,0.001989873680814047,0.035638237853760746
300bus.pwf,17,380,9053,9533,0.01189999999999996,-0.0449346867399405,-0.01189999999999996,0.046354314263809204,0.0,0.001419627523868705
300bus.pwf,17,381,155,156,1.0153709910227735,0.4692027572447537,-1.0141718221885827,-0.43082935455065163,0.0011991688341908002,0.038373402694102055
300bus.pwf,17,382,202,211,-0.2686084561392717,-0.1377391385398976,0.2686084561392717,0.14813806942717278,0.0,0.01039893088727517
300bus.pwf,17,383,9003,9033,0.01913496311008522,-0.0027751588499168945,-0.018899999999999997,0.004266125313004612,0.00023496311008522341,0.0014909664630877173
300bus.pwf,17,384,7055,55,0.44999999999999973,0.25000000999303307,-0.44999999999999973,-0.20473753238534087,0.0,0.0452624776076922
300bus.pwf,17,385,9005,9055,-0.08000000000000004,-0.05214016690677625,0.08000000000000004,0.06000000999380961,0.0,0.007859843087033358
300bus.pwf,17,386,15,17,2.4187296555123092,-0.855638158543351,-2.309999999999996,1.029941884648154,0.10872965551231317,0.17430372610480305
300bus.pwf,17,387,9002,9024,0.013582230408439271,-0.0031949912007849485,-0.013500000000000007,0.00371678193392946,8.223040843926416e-5,0.0005217907331445115
300bus.pwf,17,388,9004,9041,0.01013353096356813,-0.002741786927706644,-0.010099999999999998,0.0029667064844971923,3.35309635681319e-5,0.0002249195567905482
300bus.pwf,17,389,9023,9025,0.004511509718862823,-0.0007278306829379831,-0.004499999999999993,0.000795900397421848,1.1509718862830198e-5,6.80697144838649e-5
300bus.pwf,17,390,193,196,-0.014863412691846148,-0.03835878341741239,0.014863412691846148,0.03872704322393883,0.0,0.00036825980652643864
300bus.pwf,17,391,7166,166,5.530000000000003,1.1108739555482643,-5.530000000000003,-0.5242342973154308,0.0,0.5866396582328335
300bus.pwf,17,392,7062,62,4.000000000000002,1.5000000149832928,-4.000000000000002,-1.021085440714657,0.0,0.4789145742686358
300bus.pwf,17,393,7039,39,4.999999999999999,2.000000019990118,-4.999999999999999,-1.2492226238178503,0.0,0.7507773961722677
300bus.pwf,17,394,196,2040,0.9160462177342552,0.21344817861621124,-0.9159663270768768,-0.19747004714103333,7.989065737845635e-5,0.015978131475177904
300bus.pwf,17,395,227,231,-2.3500000000000014,-0.6892960158762942,2.354801149020477,1.1653079270933868,0.00480114902047557,0.47601191121709263
300bus.pwf,17,396,195,212,0.9037151675956496,0.669192041808847,-0.9028866621380218,-0.6312879171223768,0.0008285054576278039,0.0379041246864702
300bus.pwf,17,397,9001,9012,0.12582193776656908,-0.10768174633007736,-0.1248666343293168,0.1247891642304088,0.0009553034372522806,0.017107417900331434
300bus.pwf,17,398,222,237,-0.7800000000000001,0.03673792755684173,0.780705495478022,0.388377937146214,0.0007054954780219003,0.42511586470305573
300bus.pwf,17,399,85,99,1.299989476776577,-0.27087313400653557,-1.299989476776577,0.3443548304541011,0.0,0.07348169644756553
300bus.pwf,17,400,9023,9026,0.004510548128023958,-0.0007306134608206937,-0.004500000000000007,0.000792994603356566,1.0548128023951664e-5,6.238114253587224e-5
300bus.pwf,17,401,9003,9036,0.030420175716816215,-0.003652165739537099,-0.03029999999999997,0.004955432669796938,0.00012017571681624539,0.0013032669302598388
300bus.pwf,17,402,3,2,-0.03691464345371202,-0.07489962197808353,0.03691464345371202,0.07521416445987938,0.0,0.0003145424817958542
300bus.pwf,17,403,204,2040,-0.900085311878649,-0.021474644657876782,0.9159663270768763,0.19664885559227313,0.015881015198227266,0.17517421093439633
300bus.pwf,17,404,37,9001,0.11519310701724592,-0.9295412157708284,-0.11514079043301492,0.9299423095831713,5.231658423099361e-5,0.00040109381234287866
300bus.pwf,17,405,114,207,-0.11821059021220744,-0.02479399603087451,0.11821059021220744,0.026601871263954635,0.0,0.001807875233080125
300bus.pwf,17,406,12,10,1.385833320267421,-0.21808773393352254,-1.385833320267421,0.31254429095575276,0.0,0.09445655702223021
300bus.pwf,17,407,9005,9051,0.0004628588216467524,-0.16250461976023323,7.806255641895632e-17,0.1735000099936005,0.00046285882164683045,0.010995390233367264
300bus.pwf,17,408,24,23,0.6347525958198614,0.37772991945853107,-0.6347525958198614,-0.3499417501549331,0.0,0.027788169303597954
300bus.pwf,17,409,87,94,0.9751363359132944,-0.4852336290718213,-0.9751363359132944,0.5373929233081682,0.0,0.05215929423634691
300bus.pwf,17,410,21,20,5.139790040877082,1.7222572192811612,-5.139790040877082,-1.362164115134533,0.0,0.3600931041466282
300bus.pwf,17,411,62,61,1.2852326392466022,0.5216904957877908,-1.2852326392466022,-0.4273412104816714,0.0,0.09434928530611941
